* Boost Converter Simulation
Vin in 0 DC 3.3V
L1 in out 100uH
C1 out 0 47uF
R1 out out_res 1k
V1 out_res 0 DC 12V
R2 in_res in 1k
C2 in_res 0 10uF
C3 out 0 1uF
D1 out_res out D1
D2 out in D2
D3 out in D3
D4 in_res in D4
D5 in_res out D5
D6 in out D6
D7 in out D7
D8 out in D8
D9 in out D9
D10 out in D10
D11 in out D11
D12 in out D12
D13 out in D13
D14 in out D14
D15 out in D15
D16 in out D16
L2 in_res out 100nH
.tran 0 40u 0 1u uic
.ic V(out_res)=12V V(out)=3.3V
.backanno
.end
