Vin in 0 DC 3.3
L1 out in 10u
C1 out 100u
D1 out 0
Q1 out in 0 MJE3055T
V1 in 0 3.3
RL out 0 10k
B1 in control V=V(out)
.control
.PARAM fsw=50k
V(control) pulse 0 1.65 0 {1/(2*fsw)} {1/(2*fsw)} 50% 1u 1
V(control) pulse 1.65 0 {1/(2*fsw)} {1/(2*fsw)} 50% 1u 1
.TRAN 10m 100m
.plot tran V(out) V(in) I(L1) V(control)*10
.endc
.end
